* D:\Tesis\TesisShared\Info\Hardware\Power\ADP5054\ADP5054_ch1_B_LT_R.wxsch
*#SIMETRIX
Ren1 J16_2 Ren1_N 0
Cbst1 Cbst1_P SW 100n  
Ren2 Ren1_N 0 10meg
X$L1 SW L1_N  pinnames: P N
V$J2_pole_1 J16_2 Vreg 0.0
Rc1 U1_COMP Cc1_P 1.78k
X$Cout1 L1_N 0  pinnames: P N
V$J7_pole_1 J17_2 Vreg 0.0
X$Istep Vout 0  pinnames: P N
Vlg2 Rf1_N L1_N AC 1 0
X$Cin1 Vin_P 0  pinnames: P N
Rt Rt_P 0 68.1k
Cf1 Rf1_N U1_FB 47p  
X$U1 Vin_P Cbst1_P Ren1_N Rpgd_N SW J17_2 Rt_P U1_FB Vreg U1_COMP 0 0 U1_Run U1_PSM U1_UVP U1_OVP U1_ILimit ADP5054_IC pinnames: PVIN BST EN PWRGD SW SYNC_MODE RT FB VREG COMP AGND PGND Run PSM UVP OVP ILimit
Venable Venable_P 0 PWL 0 5 1e-006 5 1e-006 5 1e-006 5 1e-006 5
Rpgd Vreg Rpgd_N 10meg
Cvreg Vreg 0 500n  
Rf1 U1_FB Rf1_N 69.8k
Rf2 0 U1_FB 13.3k
Vin Vin_P 0 PWL 0 0 1e-012 0 1e-012 12 1.000000000001 12 1.000000000001 0
V$IPROBE1 L1_N Vout 0.0 
.GRAPH IPROBE1#p axisType="grid" persistence=-1 curveLabel="Iout" analysis="tran" xLog="auto" yLog="lin"  nowarn=true disabled=false 
.GRAPH L1_N axisType="auto" persistence=-1 curveLabel="Vout" analysis="tran|pop" xLog="auto" yLog="auto"  nowarn=true disabled=false 
.GRAPH Vout axisType="auto" persistence=-1 curveLabel="Vout" analysis="tran|pop" xLog="auto" yLog="auto"  nowarn=true disabled=false 
.KEEP L1_N Rf1_N
.GRAPH "db(:L1_N/:Rf1_N)" Curvelabel="Gain" nowarn=true yunit="dB" complete=True analysis="ac" ylog=lin xlog=auto   persistence=-1 colourname=Probe3_bode_color   axistype=grid  axisname=bodemag   userid=Probe3$GAIN. MeasureSpec="Gain\sCrossover\sFrequency\s(dB\sPlot)|0|0|0|0!Gain\sMargin\s(dB\sPlot)|0|0|0|0"
.post_process probe_measure Probe3$GAIN. Gain\sCrossover\sFrequency\s(dB\sPlot)|0|0|0|0!Gain\sMargin\s(dB\sPlot)|0|0|0|0
.GRAPH "ph(:L1_N/:Rf1_N)" Curvelabel="Phase" nowarn=true yunit="degrees" complete=True analysis="ac" ylog=lin xlog=auto ymax=180 ymin=-180 ydelta=20 persistence=-1 colourname=Probe3_bode_color     axisname=bodephase  userid=Probe3$PHASE. MeasureSpec="Phase\sMargin\s(Phase\sPlot)|0|0|0|0"
.post_process probe_measure Probe3$PHASE. Phase\sMargin\s(Phase\sPlot)|0|0|0|0
Rload Vout 0 5
Rnint 0 Rnint_N 10meg
X$EXT_CLK EXT_CLK_P 0  pinnames: P N
Cc1 Cc1_P 0 3.9n IC=0  
*
* ADP5054_IC
* ModelRev 2.3
* 2015-03-31
*
.SUBCKT ADP5054_IC  255 258 260 280 283 267 275 272 256 290 269 279 268 293 294 282 296
*#ASSOC Category="PSU Controllers" Symbol=ADP5054_CH1CH2_IC
.NODE_MAP PVIN 255
.NODE_MAP bst 258
.NODE_MAP EN 260
.NODE_MAP PWRGD 280
.NODE_MAP SW 283
.NODE_MAP SYNC_MODE 267
.NODE_MAP Rt 275
.NODE_MAP FB 272
.NODE_MAP Vreg 256
.NODE_MAP COMP 290
.NODE_MAP AGND 269
.NODE_MAP PGND 279
.NODE_MAP Run 268
.NODE_MAP PSM 293
.NODE_MAP UVP 294
.NODE_MAP OVP 282
.NODE_MAP Ilimit 296

*
?@@--START ENCRYPTION: "ANALOG DEVICES ADP5054 Encryption"
?@@kA1dz/aLZm9Hka4XtOcXb6i7ZJC1OT+TkUb4F5fdFIXowKq0taDajQLz4GiZSWxlYajy?##
?@@6QoAh2uoZ/h1o+D2nkPVatqNh8lJtVh+TIl+L3kySyv7BgN095s2u47a6XP7HOYw7YAV?##
?@@ziL3N5j2YFERusaCwhfgkNKtUqTOYf7RIqrrgX2zGA/FgPy5VNwoK0muod3jTzFgzt/A?##
?@@kyev282DZRHK5Wxprp06aRbPaBlJniQs/sFwkbpjJ3vUnk8WmoYzBZDYUx6bKaEqJ4KJ?##
?@@eD6siQnjhwRdnfB3dsfGPiuQalkzDQ45ZVb/hEIP6ZbkX0zRIghRFwzpSidqygBN4l7d?##
?@@Tc13sUF7w/zLm80+dpx4YjH/R8wvsdSyPijA180DhrwqRSPZG9e8LFlEfZYUvGpzXTX7?##
?@@xt19dprCy6llj26xHSbj3/mQ3nV91c/L0f3rkd3dxtHN4UWK8jgyvkAciPuFD7kWnonZ?##
?@@jwRjeXGp5z95GtJZbGW2J1xGtM3vL7KVv0gs+uz0HR6NenFadUf6mlrmBZME4DjwnbMn?##
?@@PDsy019iNslij4MsXyhITEFMNjLaVva4VNyRRHhGDUd9FKRps37p3rlik6TFL2H9iQc2?##
?@@idHwZxc/7FvDzWQLYzHzxWM/a7bvsHS/5pR9sPZDxCRXB0YlYAGQu/R5rk6w+KYhOgJd?##
?@@Hjn1eBkD8oXwAHk7uayOPiZEzNZNGP1ZjekzRy/ksUK3Acoodv+YOLdEeuT4ut17i780?##
?@@w8NEbZrFroj3mhm3vsSFwDy/gZYMp32tExC+ocFMLEiTAGumTG/5CHt0IF2h0wy3hf5n?##
?@@BFkFfn7w3ncL/3ay/vxhfgy3STx89QXC39qROfvMtjvQfDSHOlwsn3DCXuGloVhA2Efg?##
?@@6QoZi1ligXog4W3UBeJDtpCpEcvIUPo/FFNG7fyPgO62exsD8kjT2KS5JnkmTtLJCeYD?##
?@@Qm6l5c0spM1DrVC8rMFAMP3zEz8wTb6jfuZhgw7QtNYi5aHEXqChdA3u7DAvNDjEOZUJ?##
?@@X2fO6BlHl6tHsN9003rxj8YF30Fs0pIJJDP1eOBFopR9/bksg84yn/zctdR42W4MACJf?##
?@@tEIlP7y+ESb2g75tkcrqN+KI8wXFQ/d+unR268A1GQfudVCiCUwZLEGvRW6awOC9xg10?##
?@@qeRTc32ZJ+X938SX0rAP81AX3zRaG3+3Cmvam0BascMuz8+t/1xC5El/c4z6uMKgZnYn?##
?@@wrswFOpZsAuVeT4Yivlznjz4QxZQUHJ1vRjUxzaSHA0cHSKyfb058t6APubg09fW5hWF?##
?@@Q3e4PSxXDie/O9H/S8g6vq7VOBmRaQyLUWW4qh1mgh+mm8PWeW1iRPiVusFCZSxmnGa+?##
?@@WCtJfWmkzGOQm5DO7oqi+YcUi6E+xK+1JEjAonP46xb3c/GQotIXGtwvFZpzx/ip/NlH?##
?@@jfM9yVhmX6MYz8wvqKQhmJlFfJ4WpixGdXpvdtcMt1VDFnCpTRDOqaN8t4XO3rn7lBUi?##
?@@hre3XmNbMMZiz8hKwwaVmqDoynDJZ0p/47fa0lGp6RcD9xHQSZxJ623stBnGKPpp97j7?##
?@@dzaZMdPTrSsg5Oh9RBuIZckBnR+3hDsnIsPqI9v+4RIF0efJmLp4vvBhyxIZRT9TbBkY?##
?@@TMRkWSGCjsusBEyUbl0Qx3xT+f/IRg/yxZxhr9yHFgOOp7AHeYBgF1SocUbKr3DU7Tw9?##
?@@eUe/4borwEhszTLNIQh/IV5zee9ZuzEdtSko8l7DCEN9KM2Tev7wu0G7rvDpe+otzsXS?##
?@@ygDJ10rOessvUAbYcV+5+qH7NNnmjf+ov+w6u1EfdozDn03V5vOG6Dp/dQatTVGTqS1u?##
?@@w8NEbW/n2gEwIKU03x10E9n6AS2D5VkoGAwA1hMYTqrqoGkX3aEG6Vhp9zyabRsqCAW1?##
?@@qNtAG1/quUFvq4sm7Ot0RKZgSUHkLMO9GmeJspsgniCJ/Z+XmLAxE8iL11TynkaORynU?##
?@@3aM0Zvkdjq6T9mVMwnVBSurhz1t94VgOXtuwDPcsuh/mTfBy1tGjt+rf3ER37tBgnCbA?##
?@@GhapFkH+8VNxwih4CyPgYD+9QsAU+3nf9DI1cqvZqMl5sugeNTjUh9RhrlpgCfk6sloS?##
?@@12/BVJe0QTxlEbOoWMyc8xy+PuGR0GOCfnkGgZa6jdBXhxZMdtp9x4KYGxNJj9S6xPnM?##
?@@dBxfJyO+G+SAj1UaLYcTks/BvbfRRkPgkXvKUxjQ2Sk8rPRLC4AmKZC9SDm5Wx4eB6WO?##
?@@FetKXNexHIqrHqJbMq9MRL71o3FH/i16ZqX1AuptsjR8kZ1UiCgXqf0IdFJ3Mf7K3zNo?##
?@@LsIn/h4Qxq6g3prCVyJrnn9zd99XhRmtsWvo7o0bShUW99jIIZIICOEgxdL1PvvHD+W7?##
?@@UwDpwy6gyOLpEjnj6/HF9aQrEKl/sArrVTwTq62EfVnJNs7Lty8WFb4wm2at+ggwlYju?##
?@@3JohDt91Gl+Tc590v/8UQTXcCDLoxp69j84BmgbRB7wB7Ts/o0l/2pB/ukA4ZXfPNQ8o?##
?@@1V6boyZZpzNt3z+hbsGz3duF5guVdY7FTzrJ5iD5rzO2nhH6kMQwtyD/r5fBSJPKNIaN?##
?@@oqjOCP80mYt/AF40w+HTBiD+sYNTrtYt35Zgd+eQogDkWeX+LR4fCM5LEFjjdIOBNvAk?##
?@@l0n8PORJt26cz5ONkFE795lEixVpU39QEWYgAmTlz/xADrzLcH7dw6EEH4S/YOozM2R6?##
?@@kA120vfwrI6qrqAtoo7yUd6856DZWUc3i+lBS6t12GxWfWTUVfY+wjItLQ5rTjOnU7rg?##
?@@JXV74vtj7iV0skko71TzS94MVteTBDieGlh85b6a1sEVod/iFE2Aph29aPq52322tedX?##
?@@psoaapiXWh7ZanT9O1sLmyq9fPtD+B/IOcYqZC19TU7VjynwR+qfpJftmGuVowMgxzjr?##
?@@I2RVMWvvvD5V5qK2sXv0OvYwsk7ggChEcbtNYcfOAjY8t+u+2GzWbRVD7uBAzlV3OGvP?##
?@@aLV6A5mvO6W7+WBQKdljAsFoYnPW0tk7BHQTmghdxYB66GP3UAP3YqR16XUVvet8NBfa?##
?@@+ZRLEVNHyWkKaSNYcRH9ZfVQJ0YTyjITnLQmWyZIHDKSmGnJtmlvjXMyJpasMZoXBmK8?##
?@@GhapFiadUF0zN4Wyte4fgyrHELntFO/lnIyC4r8PxqCboLjDBBrhnXzO3FBOPqApufxD?##
?@@L8s6VsDaooaRMNupl42UUiyITql8svHvHoQsLvBW32EI5aIUk/C/95jfqHAxZDS665J3?##
?@@8Eaf9e5oZaat/AktccflspeC4wa6XkJl5PM3j8AVUHbB3NPwVyS9/JsqqzPzE/BOvDR5?##
?@@1V6bowKTdEOPed5nwNJ9BElEolDmCI/si04VhjyGI4Zj/BAJhPEcSQxiq6AFZHx5hyxz?##
?@@PkxYg9ZbZYCst1U9MzQNurrdvqUA8QBz/pzQJ+6O5AWu+LejNIGhgiPAFWH+qY7iUqjs?##
?@@szoS58o6O3wmZM/DCyJ0HvAhLImydi2Gp0Xd76tUbHRRCgxOasE1X0pYFUpKOAqZ+mmh?##
?@@4L1tb/1aDyuUQrAHplkxMpys+OstRvALcIzaVzI5Fhp3VQ+DuJg5OhVxdaFgWL++X5XU?##
?@@vZDRWsQrKHu454gqvffXWRoGUDdHbTEFv/t1qeInWYpxNmYsfA6Q9OQJuhYxX1mlsz7O?##
?@@BmorL+qN36ozZvjzVLg0N4rT6SlAzqOlAhQ2fVj70jse/rKmnzwo+F5MYIXB4znD/UyQ?##
?@@Y4obSU7Mb41A+hhBhcDCquiNoqS/fwkINzr/vm+VwJaz6Djvw4RJ7mW4P+uZ8AGylceY?##
?@@1FaIS32xP5H+qWFh79WGEba7y7FpqUROfok7p2XkhSmql1LOrNiJ2v1u1al8KRqoErC8?##
?@@dSVygARkijzFn5Nav4AMDoFIqDqtZMIL95+6mmuwa1KuMz+iiE/1YExzfPfNggLqhZbt?##
?@@WjxvLjH6Lg4RzKfrjwURc3cGnF1xcEDeXXk4d8yOhpvM6NKOX8RzfCkStVakr0OC8N3U?##
?@@R5kEnwNwLY5cUypXHNajvxEK2+6GuorTFrqqA/GvjeyqZ8i6dhbVRDUJ8OdgoDhcNqrt?##
?@@YHDiQLPOgPFDuqBiOkb4KoK/3FBwfpai4K7TuCMfqGf/kfnmFbo1lLD0p4iQiH+P58fF?##
?@@GQ6WvpDvD/4SVGn8+YWca3nH85Tv3vpOVRFvmGPXCvq6FPkUNWU6xVAgYefw4+uUBwKQ?##
?@@PkxYg9+Cjmh3+KeNT24US0W2j7L/Z3llF2mSfzr5hp7+AMl61BuTdzc+Q1HHoZ+RWCop?##
?@@7z6MndN1aQH5KmKbdqS+kcUYJ2dke5mK9I5huFqL219wJlwh8P0swa9LnoT2oW9qd+QV?##
?@@nHRb9mH4EAjLzDmTf746kLoKcVIx5UMP2xIvMB0FTcT+pHvD5Wx0ZplydVL+fmYC7Ppj?##
?@@fWkLQ/LhgEs1AlH0scnNOomOsQBH7sq7Wt36QnXStqte2rOquj9oWkMWiM89q1I7f1n3?##
?@@rg+zLSTJ/Hfdm07AKZf80GDVHprOiaxQ5D5Zp9qC1aK873hnbjm3S3/w90Kh0eTdJotc?##
?@@C5WL6ZZXw1KcP8VkU1kb7km3MieX458rYvWhQBAiCGwErumLU92OnB6eAPSk7FII7ly9?##
?@@LLEBTUIpK3AHVZ2Xgm5G2q92HBtii34L4Wq9xBq5mEGWONcLQvloDucHz8eRwL9TkMRK?##
?@@/baXcotdPSfWNFiYlJ/vHeaj5r7fbS2iBOYq410WE+vwWf2gmZ8T3ABYX0iNy3s0jypK?##
?@@8lfFpk/4H0nv+csaKedk5TAwXND4V3lPeuoNYLIYGJFoZhCRn8sw87TFAsrswjMTqGL2?##
?@@cxNMz4rGaQk6k5h/58We6sL35Ztu/o2xubAp7LxihR8HG7yMSmDHyuAM0kPH6L8f2l9O?##
?@@BFkFfsK2m0ZK8d5W6U4TGuoxdFnGZybNZwVCLIjQgbWCPAs1moHWB0iZi3mcdpamiYik?##
?@@sSnsNgDKp//kr1VqM74/WrTRSuADjjKYzz5qpxomnsILZKaVz1J7fJPaG3nh5AMSwYMi?##
?@@FvRdtTo3ZM3mgAc2WwUTlMXntfa95s7Yc6zdVTXAecF/uI6r1Oirf2EeEoGltg+yYG6c?##
?@@T96dYuC575SimP/488dAhorBZByeRwI9nQwpUrorNKmwffyYYxoW93q/AxMm+8hdijA+?##
?@@cPoTxmVV35CTXAt1FCD/plDk4yktCTEDZkpwWFPvVahFJRfm5ZZSzdwF1KsPzGq09th7?##
?@@PUNFK6FvvVbpgDYgUiWsTj7YySrgF1Wx1J0F1IG2rVFvqyuN0kWxRpEHz89t7hEZEKTI?##
?@@2on7XRhIRC6pOfgosEVvIZwsYhpYQwlQqLMXPJ4ZqTyaiuP7igUbcjPiuurwyDl77NAu?##
?@@u3+rqmtX2CNjoCAZ/uBFNF/mkfUCDJMOHpIFE53ur9BGYm2+2kYyzHWPbzGU707Ebykg?##
?@@rP6MfOyn+F+jdsCo6W1h1fH9t2zlEhxtVCva8VWSjKy7/NstRWE9ZCfLJCTbLHL0Jmdz?##
?@@MdxgB7dfYIJhZXPtJ4U0DXO6jc3FJieHeXGCTU6K+sIj/3mhS0tqL0WOSCbyk9vRdkxV?##
?@@8lfFprZRxrwi/SEm+ojPaJvQTh5E+so5oAbulRgXg6kpV8yrwmkCGQwniPssXUFh8h1F?##
?@@7z6MnXGgQzh7TqrFOZKyFJ+ZFStwCRZ7r1aMzz9VZ2Y8HFaS3gAdJtxOVbaL1o2aB491?##
?@@fGH46qnK3XeAeuSROgayNrdFQRNFOw/uLX7gujiV7qujGFWCIm7F1RDqesNGTpvdtOPq?##
?@@PUNFK79hlZq6wBNCH/r6ikKHB9y3O/3DA2zrEUhA3MQWRhWFpGpk+GXdGl4OH7F43n8s?##
?@@Akjfza50NpICkvJXjQhw7dqVlre2M5DkGLVWzpwdLMnAI37kiZwmU/kaNUCmNqEHnVLT?##
?@@f3sx86FbGirZwzG391mw9bR0Ndlu0o8/lOk0uT4YzgefEf1R2RA9XdYzLnEVf2Xq6ykg?##
?@@YHDiQPXcp2hW2idzY7ALC2qK7KkVSjCgMPP+F8/pzkwNJDa1H5INZPycm2bW1eqW9kJe?##
?@@OSH5yphZLc74/9TPrwKDqD34e1XmBrdpGoHLI1H6AwXCNEtBigsA7+NAx/En4YfxhDAU?##
?@@YoEI8WhVI0NCdnloQtHg87VmlWti+ZUapfZDDjuRxnlN+dU/4btPb3uHcbEdoqEChtTH?##
?@@5/nz2qVMcscen5gxQscfBWu7ZQ5ZLfhddBZbUyDg6YHYHlD8doRPSmS70uRrJVMDrCVG?##
?@@kA120rNL518eUaVUkJ+Q/zmLeOG8EpUDbV0sxydOXRfPN13LFlSp1ur32svdUe3m6W0y?##
?@@6QoZi848l3iGTllYSbLsySU5/wWYmIIGb4awTma9OJ3q5FaQ1T4qcM1vxfgEe5XIGRih?##
?@@lkDo5C6eMKBVEmvpvmUluWqgKweElKXu5qlvGPQ2PFeSqet6KVTLMICkINMcXjNvz5m0?##
?@@L8s6Vv2M+LezxkC6IDA4L4pXQ3Mfu3fZ7CG6OOee9oBx1OfX4AJw5JbPlf2or+z9mjYM?##
?@@PDsy0wgpG09M+8Z8ImbDXA6bOPbiwA3HgKA7M22ACT8NwFw3IhjYPg2eKFY7um0P+5Ol?##
?@@MdxgB/gntVBrRRqHM7+NiaBR+Asfktk1gM/RNsKqTQ372rTSDusjvKHLaM3McHfdU9w8?##
?@@PkxYg1RTaJp1v0F5jWtyju2uDcyMfufmBkZ/BRVbdPrxfWVCsw39qjrSI4glXryLy/RJ?##
?@@g51+VRqF0NhfvljLokuHR7YGiBISUj8KdCp1XA6grmW46mO3yLttOparNuj4y12R4KK8?##
?@@RH/LlgkG+jpFCQZP3/afLoOBaf3ulaDYh9dsDLX3J6ODUhO2PAXKRViUgS89k2eNrL/h?##
?@@5ejNKSE44S2DJ4gjlmDN2u99hjagNoPpLKcycid6wCaSy47PdI5AG1B59P0W1uROmLCy?##
?@@gpRr/WE/1hP8gCf+cxOhCsHuiajGZj6X+7TUxn7yFbZgZFKa5Fa4xAffsW80FcxgXhlH?##
?@@L8s6VhQ9TooqVEsHWD9TuCdlIFpVatYkFtzWiCD3DLnR0ungjFrdbG6GrVPFbWj55TEC?##
?@@TMRkWekYFimzphuAKQdgEANDdqBCu0fbNHaeJH6OngN2xehvcnYOf2f7vvRhNiqfGLbU?##
?@@/baXchYIvQecUFcwwVENMStULWkf9sl6jeIHPqQs+lF9U8Qqb3m8bFvDOiVGXphGaUKT?##
?@@GhapFkqRVX9Vno+DGT9wIeMwC6iD77HgbXoBRrhoF60468gi3JqeUyPsoSDqkVHlbgyc?##
?@@001181eIWTeUs3l6cg78/gCZv3n5S13WgtbLqLFHuVxziXgfdoiz08mfBv09jzq2mFHO?##
?@@gINETOqNjb1Maf2po+Ak4oxuWq+GNCAc00Ho6s3DX/xHMxUrs8xbdHGXRnH+6hkideT1?##
?@@kRWJKp3rXtdsJgtMmrb3z46ah6vh6/ifm+5Hd9G3mVBQrx+NnHIp5A1vJGSW2MqAbPiG?##
?@@oqjOCKJte90SX/N4Ur4SD0BcnTAt0o6V/rASXZMS/ALjD1dJeBGHu3ht580VTNBaulbo?##
?@@zyspkTRZkXZzNZIhdFbJMakzKX/sZHajlyZzjzcyYsNABvNEQzYTbRHsswl491X064t9?##
?@@kA120g1gxiDmk3W+niSQI2mG/OwsXSdvm+JPMGLv9LNlzBj2dGUZ6mO7llOhs81uDZ+W?##
?@@RYje7iOwnrHmKuUVT7aKLia9HI2OM+f/IY6JZN4ILhBfeOBqFGsllk+GUUY5923ZEChM?##
?@@rg+zLQ7jgPgUX4+kxW1fy1sycdua8Pgmwx1TPKC9eaQ26Defcm4u1l/I1PiZHSn1OqyQ?##
?@@B3M+h0jkjFevLxz0eBcx+m+lQ+I+guG7PrbFHJyigUBuCxHtnLvb7EvxfJUMCyd/BWzw?##
?@@HCfPx6y/3bGzSdfe3EwzhDvuBOMzfVUhIzkIiI6xr49QXc90EJYanS6k8yOJ7L9uP9CX?##
?@@qeRTc3xmwHhOAjOisi2WBTCQKNJ/sjA6SbagwO9CwPtHH04RYEaO7B5t7EwY5VVKmTs8?##
?@@unaYUeUhWYg+iEm7YZGanmPg1xOzEYfOCkVUyYfcfLO4rSp2M6Th2bbZeb7FRg9FxM95?##
?@@T96dYnADvcQhs1jRHnyF6BvoHW6cMv9C2QiZS+PFAwsJlY/DwWYdoHkBR8TQIkJgYD+w?##
?@@IEocKPc7EJRedriiUEU8gKfoxO8zCeoXR4a/ooKokkGftOPGtMZDuNy1C/27JxSie4RQ?##
?@@beDavePaXl9XdCK83w708JoFf2P8zM7Z+7FPkmUpZoA5MWyj4et0Lt4sKUy+9lH02TPM?##
?@@BmorL3nAHrhVKa1y5v3Jf/Hmy/bWhkDiBvsrx2M4NgWpmCDgCWWV+i/1nJLIl7FWEh62?##
?@@n46U/6E+/zNgFWF2pzCw4Dgs8JfAP3iMH2P18ob+jdM5fnsgrgOW4boqiYLtHzNBaYiY?##
?@@5N+60T0CUpWEGlRfSUZs5MpKhS4dDr7E47KALEsR18SQeRgIZYgI5VcNd7Mdt6UwXgvI?##
?@@ab2NW4RfuYWIWjCwafLn+k5s1UKd1YwRcuhuN3N/JZ6n1MtGce8qc2tHe7yw3I/2LreA?##
?@@hre3XicDlFWThPlziRhuLGomOg0WiDMuWRVswh8tCqV+1cdkImoNi3jBDYujznQRGobT?##
?@@q/V5JLRHcdDeQgPwa9EDtkDqQv7YV0siQt2CzgRnmvc2nRXc1hFcLDkH8jtx4gIfdUtm?##
?@@2HjVrGE7DeQbYQmIB3iv9hWsh9NT4BB24klsBj1CCPp0z75S76N3Lk6LrtbrYLLhEtIV?##
?@@xdVqHQKBR0lBUhTAav3B1En8t+5n80urAwYia+RxUPmuZYayo5kQLJ+0pt8nuBgu48+u?##
?@@6hMs4y/6ugFuM8joghZyqzKIbjAMfocgNnedh/1zSkRV9bCBNt5YG/3KqoPjnmvoCTo3?##
?@@37RaF8yjH3/mlQLgzKmkfW49Xj9YEjifL4IZe2U7lwwLa1BUIcXcjrSk1BqnuOjhYMvl?##
?@@WCtJfXoVlxDarDloFhuG2Ch5GUjRQjoWANfYKtxVkw4ZlyFZmp+13FunvQjn466p2NwP?##
?@@AT/MdRoFvPRp8ciSfxQlu6pFsUw5Xlpupg8L3Rj30Tc/PqAMDzIglK1G3yotPHSi7Kp9?##
?@@psoaapwQq1sxC8PEq/15BSjfd/sbC5LbINoZJdWiZsiefSD8kBkzTNuN+tUcWFeYzitN?##
?@@ywjcMO5LUfNW2G9/8NJ7ial1BqnuG8hLtK2Yzf0/GupVKiIExruwNB/webdQfRySI/IN?##
?@@GAWDZaR5dKTY6zL+SRVlILe+ZLxkoxHa8isT7QfQdW4JXwnSxcHg2f34fq7JZL+wNIBZ?##
?@@jfM9yeLLFJabKSEShSG4/uXfjSBlTzN46RNfS9Wo+2VqfT4VuDlETYHjIPnvx/BiwiKw?##
?@@4s6TIPLe3wFfGtab/t/gYgTOBQ7pgJ0WOw2lejF2VZQAzz1S34jHRBIJN4IdPQbYMRJO?##
?@@VyM2JenTNUV9mNWTFJXaGf1QqUwkRCQuYXAxXdY44K94PYdJvPdwr9usQlsCYfBkIolh?##
?@@IEocKMziivfUWmeobpL7ukM1eKw0cqLfrAj22XTZBjPQxj3uiKtDOVuhcI6l48gJ8IlR?##
?@@KZfHRHxmd0MRBX8queYecZ+xrtxWsWpBzHdTldGW8Vi1Oxqm8BLhHavyyCUFeX8OiEHX?##
?@@gpRr/cfNcqkOYfDtgRnGeTVowYBCCEKrGNbuUF3vfA9xs7IGzo2PJb652e0eK1CtwwzB?##
?@@v6H3CzGgjucN9q0MAAm2f3gvcj6fb9QEBY0t7hgWyz7autYEPGOv2013ED/RLfxHXvFa?##
?@@ADe5Hd9JP9yerCD/xEcQUYCg5F3A6ab5WuC/Q/BypD981Q9xyssNHxM7Apq2AFI2yVz+?##
?@@JXV74n9/6ODqkHfYLsaDYT7ytgVTe8BZUbotWupiRu7EAoEmcCtJp/H3YQ7knXeQnugy?##
?@@WjxvLsr/u47ixQDPZvVdKaugZKNg38v1LtYGdEavlTsHdtB6xcPXHFKnLYCvGd6yiKVn?##
?@@jwRjeUkN5J/Wy8c+A5WpMOlqJfx1FPDuGem1xq12D1tprIA9SpAUvRJ4Dzz7P2wRkCvJ?##
?@@BFkFfml3dgF2s6aSTS7fyiU1uTLp73jWwBwL45omalQ1OFwjmyvqs3sftuCK+zo/2Amm?##
?@@7Sxl7BnnNwpSGCD1Fn6c+WhNTMrH7ppYsrdva+4ja22DjIwlmHwvgmDB/Ez1esPyRrxE?##
?@@/r+qyls0sDcSyGgeQNLrbU+kTMZG+UxX0nP8PDAzxySjIxWmBqX7PVb+g8SImmekA2VO?##
?@@f3sx87Fqsrd2Gcz4p35CfA9YNCNqRoRvbyCB1nrrt++0ofo7SdY5N98pWEduNO2MLRSd?##
?@@aLV6A0emeJrtdIJ//wk3HW8MN9uQvXuTjRiolH5SV0kzXZNV5yVYbyf6w2hPqb2yV1M3?##
?@@Ecn9+yJ8Yswz2J9f7yUvFlg4lXshdxLTlqT4Q/zyZgbPdzMYEexFDVTA/BzOmAvfUYn2?##
?@@hre3XtaTOZSgxay2WzAhiPtTqiMg/MegiW0jqhf6o+7ugBkbvbyac8gAU6V6qGTW3cT8?##
?@@x+aQzmDPhRmCEhkwW/Jv6hM9Hk33/sc3W73AQrQSD3bebXILTTxTyCUtN5oW1zl59ZY8?##
?@@8Eaf9TkI/Heegx6l2W9xrIUju9TCOXfZdKpL7m0KVRmq0ioCz+0ZQP1HbVbo93SBid3S?##
?@@eUe/4ZX0aT3jMarPhdPZnOpOWjlwBiLc2AiQp8i3DDygjh72uCkhJYN9EP6Q18pMsAmP?##
?@@+pxeafDOHG0mWV0UO3fLMFCKqaJxSq/KEWGWqf2hI+d809Ddx8JXieZcWSlmp4vD2AjT?##
?@@w8NEbdT0DB53Xd3jWc8d/vKE5GydnC9IrAvZ3BL5r2fubrnHGm8tafYZtVAVOnHz4ulR?##
?@@gINETEzOnbCyoykPeIcItRpiqyz1v5LFEIkxNXiR8xd5DNed1N/4j8LakLCHNX72qq4w?##
?@@YXn1mOUXSR38/Wu1Z/QO50ISM4XwNamuUdEo8Kg9GMkQHL7Bdx8D4/Rc+DNYFPEE5VBM?##
?@@6hMs4/k1mBh8M6FtE5er2va0jUkuzyWTipdw53B445M9lo4PTRE8/+GMhyFCrYtIsEHC?##
?@@w8NEbemqMp/RtVZBzdEkCZg3gNgxxP0OllYRnhJihbAHfQW5yRe8VeZNKa+W2bwmRznf?##
?@@iMjdD/nxPnPq+FtG4tTJBpYSvZJvkqwcPPNG2j+i9ULaYODx+cuW1UrfrR9sS25RHzdR?##
?@@VREQdMPeXY+Vu+nXWYluBJn2mq3XSuafuLivaKaSvzEijjCSOAzdfBoTcsOXEAJY3STQ?##
?@@BmorL/13xqVkU9lnQkwtHddVjKX5uQYgIHnVVJTdvgpjsQvuw1rbk1cmkWPfnUiIpdkD?##
?@@zyspkaywp5HoCssyLr9WrSkatfqe/RALjOGWDPLbsv5PIMmu/YCY89+3fjOA0o1MWB/I?##
?@@ZJIuonEFlvrbkZ19zDc55RXav/akfFKIDNMI26TMJuP8rMQQtqj5BhX2sJgQowbcdNT8?##
?@@cQImHjU58K/AR6RoUsyO8EbNWWMFGTEjd9+4iSYXAxYqhydLKjy8YWBfuOaUBQJ1TxMS?##
?@@wrswFOs4j8CsFNY+efTL1TBhFqP4HUdg7FL3xzUcd3bNFT93galhNoz3Qww1H9hV1IJH?##
?@@P1Rs3D8CkOIMpUrGWBsFehL2C2PovQIw9q4F4kGMZ/WacJVj7KPwo7m2jWExQbx6YeU1?##
?@@yO6jJmFryIWwY1TXculIy0htQKA1W5HdxUGBgPFJ5sYgcGElEzPTrb0DZeBJC9pSPThj?##
?@@JXV74oABKUrUoALbes7hp5hAGdJIMnpq/Wh/WuAyrP/QAq7IFheUS5gH2ABNkzUHET4l?##
?@@quxmy+ioboJpPS7XQCaCu6b7av3s41pn5VuWUNStTjFxiDo5y+8xI0iIfhgxSkHQ2tA/?##
?@@l0n8PN48UaWVI1sRov+ffFGuGbLKyPOhiL7i50KnxHIDIRmK50hOIZE791prueAR4BLz?##
?@@IEocKK6B9e+de0dmjhDDtQAQz9oPO8T+E9N3iKWrHC7Z2PRL260LFVqrQK+oPcjaTvAD?##
?@@MdxgB/cNuzFHAQkSY8EVmZAfPe3E6ZkVffsgdvJrIGSkB0ZD7F1e6kVryTHgOnYmbWXw?##
?@@PkxYgwkVKmyGSB+8XKj53CImoxs3v+AyDWk+P85Momr8cKz0GjATt4PIlQ4AKyqgwku1?##
?@@E9ojrNqwV7xYwl9/pc7J7un3XS+ZWU+6DokaOBGxDV1lJKA9Z5KlYWGFzFkSIjaiW/1t?##
?@@NPaZEL2GU+UjhPRDCIySYOgfFA9/YFMVRMwc8j6d2MbMPXu+9OeYSu4C3OQbu3zPOmqT?##
?@@5ejNKUXC1KQQVUHWM6b0/Bdc4SftaOImr1WxYWdLxaretjpZfFsjDOMZjL7GPJRPG/EU?##
?@@7jV5RLzYWYrnEmqvJvmCjneuxkrgXmRBvqBmPNJPOS1vmnxLqUI4SFowF3Vbg5zo5eSr?##
?@@P1Rs3IO+IO5seefWP+i5yeftMc1OnBO66zW6Vz2zGP/LvwAS8BJum5Ak3gAiCpV8WxHz?##
?@@GAWDZYZoKMfRAxlYXCPgdDeenViIAmZTpYRtVsGfAkpmHVZEESOMTcNSd6iFZHjY5eMO?##
?@@Ecn9+8ow0ckMSF/Du1MqEThU09eP0h1q75nAJ42gO3qyxePAo6easO6gokq99BfusHHv?##
?@@sjH/jgnsl7MUGQ06cyvZNMobRVrDOk0+XXmzDC8H5VH/Iu+PyVQlxkMfNR3wpEmQFMAf?##
?@@NxDTGUDE7tLeOyUjJVDFwsKsMARGLA5GT+5TCxCrY3ZflE0Dlobui8wAPDpAElm0P1m8?##
?@@pLn0uTFGqiG3j6QJ/mJVnuS7T2mXAm/hRutPljCEqHVx5evU9QjOyDEd2LrEhuVFwo16?##
?@@fWkLQ1/j50CmU+EkqIgMQhhLSjj3x6MvxfqoMdyaBT6Af1t/GMAhSdyKCEOMIDjq8zUM?##
?@@BmorL8cL0Gd3RU/4Fbs2Q47O7UxmYqQ1k+AhDfpBTaey0DgANFS6XZhOWRgNgsHNzZ5z?##
?@@a8+0DPxRHW2LttA5t05+5+nvtfSgbFFWP/fO6mGJzXxNoobw2++7oSl6EhgcN3NnwPTF?##
?@@nHRb9sSzMlG8+jxFl2fBKZZ9NfR3lP/Kbpj4kbTTiTN+rwyQxR5XCjBiJG4IiqAjRV3K?##
?@@dSVygBbvIkIz5Uuq+wDyQnFi3gQSNgB+RMwhpTyF5qZC7Llt+VKqYZgKGquD+dRJETA8?##
?@@8lfFpiS5dyFKRj5nok7th1BXKhKOILipZp79vnqO8S2LtxLtuc6/IbCcybByNnmKxQz9?##
?@@m2tIno3BiTnoNaWv/Up7M7bW0/1v+psDND7qm0JpPj9GJpkgpjDaz0dbzUS3GYb/EkSg?##
?@@5N+60Zf2Lb7dNmj21uQ/t/rd/E4+YXElZFJIVy4Ay3YAyiDB/PgtSc7KSafOvOEwaPNO?##
?@@mVoi7ZFiivkMvB33rhaetuFaHCky6XRTdIt6XMtGYCcPggDmFm+wyG+Sks2rXBJ6vk4l?##
?@@PkxYgyzNevdqubkb8b+Q3VA3Irxw0u0e/e5SYPzNYzf1ggzayhEk6naOnQIHBEbYY+rN?##
?@@e1jlkmVGCHhthjGQHfbcZGP0XZcCmYxvMe0rk4PDroSiZ5yjjtKddAs5W/n5yCHLHO5s?##
?@@7CRSlLCGHl3jEDwGD5cJ/LVUqLC4yIgnSfcdP1SIewrvdN3fvcm2i4V6mBZ+faM1te1w?##
?@@Ecn9+zSGP7O7mNHKnIOyOq/zPZmD45K40IvwiAYRBguBVCGGeFlywILRixLjnsIXGf6n?##
?@@/r+qyg2OKl+lMQQJv7+3XGxudlL8cu23HP+09E0H3lVvYyE6F9djZ8M8jRrbf2MiK54D?##
?@@rxfGhUSe2PfbJm1Kw4XMq227GQmGmGLekMW4jKzeV7qg7pzxY28xuCthO7yK8dHXfUZc?##
?@@dBxfJ/0Et+SZ/LOGXBYqYJdQvGLfHWXogRBMdcnTeyXGGvwVZJAfhDX3y2y6MOS93O6E?##
?@@lTjVjJ8QvK/F7LewqlwBGAjAhCA+qemcp6WQrIBK7piTjZDoJv+8duiYyhB7I47LpKO3?##
?@@Co14kB1DZXkl4Yg3cfsVwZhKSlPEaZ/Pko684heqDntmWeFIAY8dWl2vFEw8yJ/V2a6X?##
?@@jwRjeRKp91z3foGxzkz2Jdn5AD2+9qWiD8gWzZcss9b2sS1IFvpHxfacjGp+QKOrkOBK?##
?@@aLV6A2DQgzs2qip04ROXjdETm63PWOfqU1CxII8TtzByWOecM9ouEsrDCQwCRXsSTv/2?##
?@@wbIdvIBAgRfYGOkWhzjsZeGSccjkTQUIGYhfDcdv6L8RI1N4gUJPYNQOjAXZUYhWohdq?##
?@@itkDwDzWIIDFjnh0akqHTleUNBWIwSSKk+jlJDY5BELcQFuh38erH4H5luEMk3es/+ua?##
?@@n46U/+V/Z6FdRVLmf7E6eqRRZrfH3MfVWxi4/BFS9f85h9atFMYLZaLrTbbxMzyEb/0o?##
?@@/K2EGjSwiGzmnSPVzBxB/+rU4KVmI8FdZYZpfx70AIp6IEh5vkxTNGInq4XhWsJ5EcLc?##
?@@KZfHRPjynwTRrzzCgN5rk+NJS5RnzNGP/zNkfziv+lBBOQ+rFKfkjKufUetlD6vok07M?##
?@@mmM1RXbRlS9NDIngV+dkjUBkiyNfHfvOS3VL2oec8idk/9cBvO6wPsKpnXprKPrSuukZ?##
?@@f3sx81n9+XXrRgsWSkjsUch2UCGtGxvaqR4VC9njzXLswRBHMle2snzfMpniG3+0WVtX?##
?@@lC/CMyj7/ZEEPoFsCwkY4rVOP3GXrGQdXbKg4X+p6BE4RhaMly7svMwolzB3b4RYd+8T?##
?@@5ejNKYlefFVzOLNgPzSUYuLsISy/Bn3WqvxlhMs2SCGrlm+hCjNgOtbm0iaHZ8vmyTN1?##
?@@cgs5d+E6zvU0grn78Vm8uwGMJk/tZC46DNNHV7d0BQv5CldlXRCF72awug1+Pkljk1jv?##
?@@82DY/mPScdEJLk/iNqA7BejcDC+ZytC+iRYOUnGBHSe0lqEuvNkPrpUEGt9WJJAthdtX?##
?@@RH/Llvq0I81PajvNN/XWqOphmpulobsDaqo2NwON2aiy3ajuiOcb40e2bGtryFR1D/Un?##
?@@/baXchX6GmFPgAspDy4nldU8WUDxaRKSrPcznlF00jZ0/WNrX3raeBMNLLPJQ9vBzMh8?##
?@@Co14kF8v5yVVtBg/IrR5NtIQNzwfy4DR4RrA/nos8VF9sOl2QqWDmqr/CJbjoB55WU7e?##
?@@e1jlko08Y8AdbGoxxdabCuR+rqPwKVLuq+jv3xTeH2NBSZ0JWgWT9QMWOjjSR2Q3L7gx?##
?@@5N+60YXPYSBjXG5ye8QAbEKJMmWLylokd136ecwWezJA4JOSMMMsM2wVk+2PlgIuzeSl?##
?@@nX1uT/6B2hdX1nwCEJg7+KjBcSKnquusOcISLX0YRJu0vwKwgYN6liUuUGdPAm/hCYOl?##
?@@FvRdtXDU3n6MteIkn7AeepmKxg1HIUI3q8kenVPTiU0n/RPiLMxy9cigcE79fLRAEUJb?##
?@@6xs/O53+G3a6NO/kfyzJI0tbToXSZ7WzW7LDXpPas/rdqaQ+VwJ0/oyH3nzQFl0pBJsA?##
?@@OBjmcdBzWDaZWinkNdHOpOItkmKCF5zEUdZxawNjKhppILSYBVZDIC83bvd6u4Ze/wsj?##
?@@dSVygGz2YnZIcC9oCy3bmzu8GLJHaXOYyj7g23/cgoWD8fIRO/NtcfQgWz/jnQJXMXQ3?##
?@@noWBp7ldAvgPXhOdePkA9bjwausFTIKKPBIYkzX/vB9cUoPXB4bppgWnnVmRkKvm4q/A?##
?@@n46U/3etIwaoe9LYPozwarpH4Mr58zp1tyj8fhCvKAc4un76p2Q0la04palbSEfh3eBm?##
?@@iMjdD3xDeuTPHbqglU7e/+AHUzbF7N3SCSpeyyzI821bsrcT1ajGo16+pHCKmk/DsvdO?##
?@@JXV74i5z0w5WIkPFOT3ddb/zZLMnqN880AHVSU2GggVjVJO/TpLQpndiJH10qER9j330?##
?@@lkDo5O+p0e0tmSS270A+1VenHRxoWEVvaUFd0agGYVhCDyF9sLL7WuBc24j2hw8tf6eU?##
?@@S7tRAOydzX1vFYiBhvpkFrKZTM/Nvh18O0/Zzvo7uJ3SBooGfahNV18nUDMIQHH/znZ2?##
?@@fGH46niGINRYLLLMAE8UQ6/JCBarkLqq15dcZiekf6eTzQnsTXFZt1kC4Rj/JxpCm/sg?##
?@@qeRTcwtrjhnk/P3qoQG/FcyeqoWvwMxq/EIWIjAeLyDtKKQibY6JT5rgVbyrEeJqE5wZ?##
?@@SrM+qDfzyjm7QQj0aPdDReo90p54IRV9Aj7E388xT3EujfNTRf5HMH+JDHggtagb3/fy?##
?@@94IkYHyMB+1zdqeRIIpQGvCW/+qW2zb1a6T3zQ2wwle0EGnsaGtJ6MNZzoTk2B8FkL4M?##
?@@OBjmcTd6fHUXDWkxxk9rrMiM5STll6kX0jB7s5UYIzm7YyZCmEyNU1a5hDbvpf0RatZs?##
?@@SaoqULzNYm8pt/tKlNEqZm9z8NvjwDuvv9n2zE08yt+sC2vq0E34LID77AHWyCWK0Z+x?##
?@@LsIn/raJ/N3+9XZDa7R36CrkYO25ahGUDV7xmzE/GWRzN/+FWig3HgjzMO7w1wgiZTNz?##
?@@zyspkVkOqw/Q+dXEkim8vNEhu5/SrgxmMpiuGw/lACxl4mA4PAwyCxELFle+CWYehCeq?##
?@@cPoTxm/VLb/X48z8WSGH+14D19/Kf6ys2CLql46hjILNBPxp7UTq8oLh85DyknF9ppmS?##
?@@dSVygFKHthDMf4BQM08f1ijOYU8VQ86unWJlQ8ZHdZVURvDH2OmRsT53h93i210mkOSX?##
?@@MuVzX7+3EETiQFGQuWIT+hIKVShO0HU3Fe/Is4dYnEyT2ks7gfKgaMdZLpNHQGgBwKkr?##
?@@g51+VRv0H2EmrJWBSLIUf/eJbhXoLxdVEEltBlYGDDq8Yfw+YSpxobczRx3JKHq9DZn0?##
?@@yO6jJjQDRbnSGDB4WaFsQGcNx/z5vDE2ZUHT1TK+Kxn9G1L06dVCV3Ooh83OWdsuwcs3?##
?@@JXV74l34JvcAOZ3V6jUD0ebP3aymHU1X7HbZ/SNnw2dPL7rFaDvhFaFfd8ZNwhxr+aJH?##
?@@Dq/E8iaoVk+4y/97VR1zfBQbxfYB1aQtnMwLVEBkurpU3xY1MUIO+VFO8LHzPdi2ieTb?##
?@@szoS50bnaPz8Vu0I017PVGv1kVIeJwgJWJNHnyARVXwpAhG8zk3rKjr2Uth3CBVwG5EM?##
?@@0DM86RADQUayOHQlunVRkoRQkGx5qkhhUGxmsrr78BiY98AjsXiZIbCgP83hFkwyCLSO?##
?@@cQImHkmZaLrD2kAWyhrJ9buUFCcM9xHw0RhyyfHJm23myD1Bp2IlST+sXvqK+ZbwCKTq?##
?@@+pxeaWIMQ59nyhunSdQpTw6G1/QqJbFewna9U9o0pnKArYN22l9/xBnBCXI9Jm0SLjP5?##
?@@W0WCht3sF+CBinOFGNGkUrrd6TZhnytiR211FWAr8BqrqwFC7oVMJweGSSUGchdmLuy7?##
?@@OBjmcYM0pmJzs2GZhT3NdoqSo2Aw530n8C2nwT8NdFt3+bOQ/mkCywY9gCQJt2C3olVK?##
?@@xdVqHe4SOxLucwHU8SdKoIKOpcqqAgFN8p6whT76Txf1aGZvnNjUhyjae2VmREKFH0yp?##
?@@7jV5RDxULoprRbGIuQ1vqofGHBNG1iX76Q7twpawJMqoen4IHPqJRDOQ2G6ymWJG9qns?##
?@@w8NEbUW1oFtl8EpN0B+WV7wSfnKK52WbO45bAPxYg3k/T3Zl7BntWv3tyDEoVHc8DCkJ?##
?@@2HjVrIrciu7OCcyg16EUqH1rLuIXSbDZQydaGTNdnM8+ZhRw3u9zBOZO1K3JOgc0Cawq?##
?@@6QoZi8ns/+5c81uCGgxPmzm46DYddUn8VfvNKLKJXM8j1vXbhx15xxJULNamCbp008//?##
?@@noWBpzLVmF8c+ltL4vD99PVGebrTLtD8bCAmz050VGIi//koXTw85TbNQdijWsWwaWQb?##
?@@v6H3C1QwbDrgzBHNveoOpTWNr63kGJKYP/8ydGl5ITHkN1o5k4iNpjSDJH/OkVPTRm3L?##
?@@2HjVrNFU7a0snX+Txt7DBrbXlApjj+4ZulSW4xOLweB0PBKeQhGK+rTj0IQ3z3GWiXSY?##
?@@jfM9yVSmH2Go7EVzqtGmymYrGGFlbl1ZZCmNUVrOlPB0b2kO+da8rKrWS1NiOYiMXAX2?##
?@@2on7XVn5iaZlnXM5uxF9Xk6ZKwBgjmFn8rumCAZp9TFoiOuGAJROc6bgOyw1LoMmYmg5?##
?@@f3sx80iCFu197DpHbvZrt4I07Xl1Z2ZrLQrnvJySjeuw3bKWwZl+wXuZzsGyBSUZapQ+?##
?@@uGVyoR1rblZdDnmkyr5kd7i1A4uc5smTS6OL9gQ+yoxWnqDcr5J9598t0FuAl0HUX75R?##
?@@Ue/DEgU2nwcv1POArr/Z5MZYG7Dgu83MmFbDf5jSnEYXlUfGq+AAh8wvA3Re3gS8XYb4?##
?@@BmorLw+pz4cEsyySCEdaiUsM+7CslpQQGyNXt0rCdhWI3Smx5e+0X7xfP4DkvxVOoiyY?##
?@@49aneI6uX41cvv4c8B3RFPOu2dffzDeQ8CIun/K9nxPEDlTenmEzKdwWmejPOJp9qkPV?##
?@@TMRkWdAY2QqH3W5Fyylrg1IFm3owcmTCw0p/2fL8d/2Z1HIO/ggiaOgEmF4lwuy02e2M?##
?@@MdxgB692/9+EgqYFaX9o915hbWUNK6DljpzcFqZRNDYqVQMaKE1yplPjFbNCqPqeUwHp?##
?@@NgfAwTNGlnNiJ8hFvUMPKSJBUOZUgxQAeNruSjegd/Sh6H41jKj1VHbztXP7Iy6vSIBW?##
?@@jwRjeTVKmgMXxyHm+3xkdrfkd07RkK960ERgnghzcZuRc3svI77m/bhzzyWsxRgaMfRN?##
?@@jOoqcDDFoh9kq+jktqoABKMF22Wdv5Qc0VoqoUqz0JhGNqq+gYb2XVT2QBsJ7tkaPHaB?##
?@@2YHoBebCn+tJBsEMJjbPCCoMtsquGzL6xbuvHZzX1dxzBst4UmQcd2VNUTaBq8FWLaNx?##
?@@psoaauU5m2eR8Z4DXgQ+osyXG47hxqaPA9LYr5RaqmJsEHojm9Pebyydn6szdgmZzioY?##
?@@E9ojrC60jUOROnKCBlFvt7QqRJV46SZmZItqVMp5aFnghBotJOfMS0WnzmOyreVyxXvC?##
?@@LLEBTRyU8g/SCDbEl5joG7ssiVs3yPB7bQ+QU1dEkfcVZoXPUrvGdVs8a+SbY/dnof7a?##
?@@8U+yTtw5gTwbOxCt0QQDS9ukvITvhBht0RfHw0Ky2vx3UZNDGsNNteRRmGtF0+RyAxNh?##
?@@tlRL8G3q6ov85a/5lEqxvmeIoB4IiL06ajIil1uhiFKoLNmG5+dxgZCHDDiub8K8wIId?##
?@@u3+rquQ5AkbYrJL3WaysgNkTdd3S0OB6vZ2iOPVh0gl/11rXsRtGT5GtlSnxVOJpOUKc?##
?@@mFIPldPCC5OFNr839n8jPpS7GnPcwJ7wcn0Jep1wBKCAqgI1qm3Jf3en2G0Jh2TGDxdV?##
?@@OSH5yvaSGOTaY3sIvelTVdv0VnALaLH6bf+2w39pu6obixCSRAeFhxinDlnkkvoooSeM?##
?@@rg+zLX2nzl/jY9KocnlWPL4gXpTGEcJOu5TMzXLp6pY6w6K/efpLOe3/065fDC6qTa3X?##
?@@w8NEbUqTSk0oJHJYvgRQtSXxSd5RkkgoUc+3IlQZZlgsgSVTSxzvicxZ1sLxuleXyBlj?##
?@@YHDiQP2zgIdHotV0BupvxnPmyenzR9elyDisDCcHGb/5fKxrbmI/qbf24ZPudtUksdV2?##
?@@ZZtB+hJcwBIi/lvTRA4kz1QM5APx1loGNiSyEDbYjHUF/us8mK24JTvaoO7cqw6xxJB8?##
?@@mmM1RQDHFOGvTtMAIGjilZJyq2G/SmGdx7eQutrW5xu3SQXPxYoJhS+v18EmjQ6iHupF?##
?@@UwDpwxMCq+Yy1cjr2TYYYhirOA6+J278z3+abrCEz21VLlPN5QQGj77rZS9OUajDMuLH?##
?@@bNfHZGiLIWQ2QmiY0cl7CeTm9DoqaFqjKKHATk1mMoOUTT74kKDtQxCh83tA7jdL6ZFM?##
?@@fWkLQ4eWdFpKRR/jP7w3Q2FmC+lXu2Szexpaclk1dQpAu9/q9wP0TWUR7QOVa9kWpHPA?##
?@@1meu/BIMrjlmJq07M2r4UcgTJ6LGsUrBKhbGIcz7YHJtfrNLDA9KVEr1fVA5SmVly64t?##
?@@h7/Ktu1Mg76P5DDFZ5bx3dliKW8W405rF7oeADJNc0/L9pb14Deu96uxqcpyYE4fmYQ1?##
?@@XE6V33hVfF56BQ/OZ7ub00Boq7I7dXLhhuWLaEEoj11vL/H5AZl5tr0jwFkSYsg/viwR?##
?@@dSVygEAASAQI3p03Pha9xVuf9T2owH8D7Hdn7Yk8lwhmQffVZAjtp5TDSFHGd2irip7T?##
?@@elDSOvjrAQ/pXTBd8ue1jGQThO4BaRYjSCEGBHnZek0ryFC6fZAIuUFtouKkL+sptex0?##
?@@M+2Gt0hFTl7HI1R4+3azTtSJnBbFMC6dK9EqiCXYtobPqkBQfLErTGAGHBoJY60thoKW?##
?@@kA120phywaNRtfYBhuIejwUP3KxmwTDTa+XGVrrbJ9uyHSAI1Cy2j72cT9TqiTfyxrdP?##
?@@0TxPQg6/b3BVcVmkz3jY4fQ1Cv7awG2NxKIE7NfW8uufnXWbHbRQ/hiS4luYeYdjVOx7?##
?@@jvxQIaZOx3/KiD+Cn29Q5XgL/9kg3kW6RwTBJpeD8brcHl5WKuyfuFjjDiEchZxokM5f?##
?@@szoS58367rc3g7D95lK/du3NNZgbnVkNBPqDmIcyo8voUNcBMQpWdP8HWm1B5iTbkrOE?##
?@@UOawujWQJscctJZ4XQFR6UB5LY8zZpUfX0vdicztlq8NOEixGPRkRaWv5pMzjJGOpSAF?##
?@@lTjVjK3fGnYGWevXigjXUnyDaJLRRrB/52RBZ9fnlsmNDzygn/sFGtMgzYU6M4WxM1CI?##
?@@oqjOCJf8RTfGznyivjg2dVWiBkR9m1lwclWLf6kxHEU4O/KULK434DaV+/3HZGRTgIwz?##
?@@u3+rqvoU5CNFMdCvLNmMYjVtQ/FhMNGnS6iBoH80HtYHUPKdRkaFx46YRfemH0P8Qdgs?##
?@@qNtAG5tRgBR9KjFHsc6vr6vIiaSt6c9SZIKqR7sgLoG5oMqpiidx8sSntamCwJEMK8BR?##
?@@IVIvgUeUaPB7P0SnAXMgGxR3dOfJ2qWjszoQkJztnONS2GAtOfTJKGDn0Z/F8p0XX3G3?##
?@@OikMIirxEn+eTb6NMeydxxJET+wgRMt9DuxiR10VHHRqObXkix6Rz8d7rJM47LYkotjS?##
?@@t1xeSAN6Pg750yEJAjPPfVX33UUvvsfCCBcYZoqTnYuecYVBOWPHGTGgH+8+G5x/NTAp?##
?@@WCtJfSMQISpvJkhObmBj+7lEwNtGTehPxEb+BuJJTSu8SU/2EQvK2rc0CZEe/V900Xu5?##
?@@9XH+r/aDAMExER4lXZf9Bl8Fd7Rh0nRwVVqRuOF6gvxILp/NWhyRbwF96pHHB+DZCFbS?##
?@@vpjkszD/G6+LCEL0osZtbJ3YGAzfsCphqxlWPNDwYDjp22iGwNYmxE9xaMgx3RjeRwa3?##
?@@b/EAbjysxyCS3ygsHzYhBb8wkl6nVeaTsuGp+3qneWAEaoFfbxre+mAkswnAHWMgxhl4?##
?@@FOM3BBfvLr6JX598wRUeZcvg7N5WLskBgk7k9aEbfRTO+9usEe9BUeYDPfv72gJUiIge?##
?@@SaoqUJi7tfZ/Zd2YTxLpQv7gQC9zl/YqqzMFDFbu7dJ4exUdXm9pqwC33UI35ayLo4vk?##
?@@jvxQIR61dxOBx8wUoggpDQ5Qfn70zBystn5yMM1HkVIoDCn73xhv20fDBbvBG5Ycf3EE?##
?@@94IkYNJBpEBGWLSlZPYFuQXQiRIuZzaC81eg4NxsoeWqnF5cswoJmVYbdppdXIJiOGBR?##
?@@gINETJQpedTPjlVJcdBG2Q5q1XC7VrMLEQBHdw8wy0zvfmejmjfR5WNiY57cX8d1YH0m?##
?@@FetKXJFYtxzZhu01xyiDaIIxcIwSoMv9+HGGsDtrnTGlkEY5spoghOMPUMYsge9l7NYe?##
?@@KqDbnFj147wjcvlRsJlvTIq5ObApHEDsrrx/9JriG610gkj7hfvN3OBlnBgTM2NL0kJn?##
?@@J4ahkwdSwNEakQXLLsYSlbah+JShJLC0iKwsibjdTs/sPKjcHu9Gl/pJcwLHLW0Jrjgi?##
?@@kA120jnejq/YCI3TZFGj97R2j4Kuoh0C5r+QLg9q/JVw0Vpe7CsfU3wZzMtzkiXciXZF?##
?@@DaaxmWeXuWdzP95Gb7O6O3onq+HszNWsfrlFpZyCuApNqPFr6AY7FwdSujDlnJ7vHdrS?##
?@@AkjfzbD1dVtu9z1x/5/kZemUkuStg2oO4cYxKW4HsfqIimZfNcevyzHMx+OeEzUCUJpZ?##
?@@w8NEbRfEu2x0VcgikafSRt+sMfj/wBqsazVEdFxarvF8MxUOjjkkiUHG501FKJrJHiqE?##
?@@kA120tVtnARZU9ZXtRvk1BTDHHvMobpYygtdbY/Z8DWVLzgGZknCfKk/DGpF97ghnBvF?##
?@@nX1uTwoTZjxWBRiB/zwKGUDrxJOtdnD0flVCuyFzJT/VFhPRd9kK2UiyeQk25UYjI+tM?##
?@@1meu/D20+TpSdoIWivPZjsc7yDc4BLmtDpsfXWSCunTWMElP/LCId8eYOGY2TndKFAy+?##
?@@rxfGhXKSm5vgHgiaH8vfaNvd2uFFQ5idyBgYQmqF0Q9sP9n4gm6nEE1QrzuxnaKNa3GK?##
?@@WCtJfSrEx/wQaniCCuTSUKt1JU8m12MGPrrK7sm+Bg8zy81ggX+lI6uThK4wFNSd+D5+?##
?@@jfM9yX0Q+46XglsY4OtIWGAwJ5exCxI3wU8fAz2kI7dWEHXUtITm1Y+EvIxhwnOlMRbd?##
?@@WjxvLpzs9mNIk8f1SjY9Od1jOUAxaWnCxVsbEg1Ugjw6cpprpjx+1hkBLF9exD7C8lBf?##
?@@v6H3C1YP2P0YQDnGjj1xXDYsO72+7TH4I/X7a2eolt37vk4CLGiLOYJCzP3oYi+CY1/u?##
?@@dBxfJ0534pQTvrAIdyMf28pBb603Ssya7tBsWEs0yjR/jjr/QDpUXy67Inu0iSe2p8y4?##
?@@8U+yTjr9X+pet9Xedn/npqET3K5vcdkV3sOsKpOb4JGgQTEwtNG83t47Watra7ljh07Z?##
?@@lkDo5ANRo0mHhUCW2iLhNQavvvgQymYpbHiCN0W7CTtc3mTn/VcAUWQ3zOkRGutNDBGx?##
?@@h7/KtkPnFYMdVyUZWjhN5zFa+1T1CD15E5TM/Zh6rYLZJlDYt1MTGIjrbRcIShk1ytg+?##
?@@nHRb9mmUm173LKtXSJzBWJgO2yv7UtayoPekED8XquT3Cyl5c3+5H5/Ku7g+RiXOao5V?##
?@@oZ+6sB2CEikEmRFYZEQLDbDTzuM3UL1Zos592edsYy06OXqT+p8MIgnVeB68urbBJzQl?##
?@@tlRL8Mfo1Y/YjxYNk9/+cobC6ssoZunLIckrVMUiwD9FcmR6X+rG7nU4xDIkV8Cmd0kR?##
?@@g51+VT5wjtrRyYlIrWVD5z4kpwHOFhHewMhxL2HxR8UOyI12dHeMpAz1GmUTePG76XaX?##
?@@bNfHZIlTEUNlkD0xt1HiANLJY0LM8NKp1RWDuA+8Lzkkh0ze/l7va/quG+IuTHxDLghI?##
?@@xdVqHSIG46XvBYzw4VFE6bFiZV2PEYtDccRIe2ugjuMU9eGuSlOJwvtKhbpD3Oc2U1Lm?##
?@@asagtCCW99OB6N/mt/AaXybcCvBLrvX7AyLodI6fW1M5VVhMAco5EHsNWdR+l3XRP9sS?##
?@@VyM2JbkQY51UQb02ejvTPcuBtisk0PSmWWKAg4UaaNwmXNMCgDdLIzPXpFk2TwskoDR8?##
?@@eD6siUOoff1oaO3xP6o0KR2ADWF0mHK/G0O8Ehp9igpS7USiiCSQgNiaMdVpJq2v2CsA?##
?@@eUe/4VDMRVbFo0NoyrEhrU2ZIkrQmeCQyGx3wkpuBXQT66RXPtke4BexEbhWDK0ziRHK?##
?@@7jV5RL/HeZjQjJQjV4SALUHgMasBfCEOXDtjpeqc7YKVaPnE8fydWQD1BgJqt4GHhm0/?##
?@@94IkYFnEcYO+8GB4KdFXj0wqhvSTm/aWzVXcYv3QUWxpKbfRpt00ZQXuWi1erbxqrBUc?##
?@@2HjVrGZ0ohGqFJt0d2/ZLOXi6ZJZ5BIygQCZZxZwBrfx3q/MeSUuE/3xCZjHrzzhsziy?##
?@@9XH+ry7VuBsIBlZ56Q0MOaKfmJnHZq9s/EnIOYeg2/j9E53ubYd7avufBgQsNT4LhViC?##
?@@BmorL1AGRvfnHEc2lBs3yf1oYpQOJkIybG5yl4YVYeeA+Jm7QZEkCdkoQ5HREixiwrWV?##
?@@5/nz2jMX7/MPhAnTJmAVjeXqAclk7w4k3zOPiLDy6SePWhghFx85XWG5cZzXB5kBQGIO?##
?@@lC/CM76ySKs3P3lwVKZlUts3fw0+1ADotrv3Y6kWEjMS8ofYOVQeUJT/AignBKOQbQ7a?##